mol_4


 35 40  0  0  0  0  0  0  0  0999 V2000
  -43.4583   31.1427   21.4927 C   0  0  0  0  0  0  0  0  0  0  0  0
  -44.7478   31.5777   21.7261 C   0  0  0  0  0  0  0  0  0  0  0  0
  -44.7768   32.2053   22.9983 C   0  0  0  0  0  0  0  0  0  0  0  0
  -43.4956   32.1130   23.5363 C   0  0  0  0  0  0  0  0  0  0  0  0
  -42.7062   31.5004   22.5869 N   0  0  0  0  0  0  0  0  0  0  0  0
  -43.1765   32.5975   24.8142 C   0  0  0  0  0  0  0  0  0  0  0  0
  -44.1954   33.2083   25.5743 C   0  0  0  0  0  0  0  0  0  0  0  0
  -45.4719   33.3581   25.0081 C   0  0  0  0  0  0  0  0  0  0  0  0
  -45.7788   32.8470   23.7417 C   0  0  0  0  0  0  0  0  0  0  0  0
  -41.7131   31.3402   22.6819 H   0  0  0  0  0  0  0  0  0  0  0  0
  -42.8776   30.4255   20.3251 C   0  0  0  0  0  0  0  0  0  0  0  0
  -41.8429   29.5116   20.7959 N   0  0  0  0  0  0  0  0  0  0  0  0
  -41.0054   29.6614   20.2336 H   0  0  0  0  0  0  0  0  0  0  0  0
  -42.2755   28.1195   20.6639 C   0  0  0  0  0  0  0  0  0  0  0  0
  -40.2578   25.8435   20.3652 C   0  0  0  0  0  0  0  0  0  0  0  0
  -39.9583   27.2643   19.8514 C   0  0  0  0  0  0  0  0  0  0  0  0
  -41.4742   27.4238   19.5600 C   0  0  0  0  0  0  0  0  0  0  0  0
  -41.5407   25.8715   19.5120 C   0  0  0  0  0  0  0  0  0  0  0  0
  -43.8464   33.7140   26.9644 C   0  0  0  0  0  0  0  0  0  0  0  0
  -43.2894   35.0581   26.9850 N   0  0  0  0  0  0  0  0  0  0  0  0
  -43.1518   35.9296   25.9396 C   0  0  0  0  0  0  0  0  0  0  0  0
  -42.3144   36.8975   26.4466 C   0  0  0  0  0  0  0  0  0  0  0  0
  -42.0787   36.6567   27.7727 N   0  0  0  0  0  0  0  0  0  0  0  0
  -42.7162   35.5400   28.1044 N   0  0  0  0  0  0  0  0  0  0  0  0
  -41.6719   37.9572   25.7380 C   0  0  0  0  0  0  0  0  0  0  0  0
  -40.6118   38.6083   26.2259 C   0  0  0  0  0  0  0  0  0  0  0  0
  -40.0479   39.7234   25.4516 C   0  0  0  0  0  0  0  0  0  0  0  0
  -39.0694   40.3158   25.9041 O   0  0  0  0  0  0  0  0  0  0  0  0
  -40.6945   40.0238   24.2639 N   0  0  0  0  0  0  0  0  0  0  0  0
  -40.2384   41.0820   23.4857 C   0  0  0  0  0  0  0  0  0  0  0  0
  -40.8329   41.4178   22.3335 C   0  0  0  0  0  0  0  0  0  0  0  0
  -41.9725   40.6711   21.8705 C   0  0  0  0  0  0  0  0  0  0  0  0
  -42.4431   39.6412   22.5835 C   0  0  0  0  0  0  0  0  0  0  0  0
  -41.7900   39.2675   23.8699 C   0  0  0  0  0  0  0  0  0  0  0  0
  -42.2749   38.2761   24.5482 N   0  0  0  0  0  0  0  0  0  0  0  0
 15 16  1  0  0  0
 16 17  1  0  0  0
 17 18  1  0  0  0
 15 18  1  0  0  0
 17 14  1  0  0  0
 14 12  1  0  0  0
 12 11  1  0  0  0
 11  1  1  0  0  0
  1  2  2  0  0  0
  2  3  1  0  0  0
  3  4  2  0  0  0
  4  5  1  0  0  0
  1  5  1  0  0  0
  4  6  1  0  0  0
  6  7  2  0  0  0
  7  8  1  0  0  0
  8  9  2  0  0  0
  3  9  1  0  0  0
  7 19  1  0  0  0
 19 20  1  0  0  0
 20 21  1  0  0  0
 21 22  2  0  0  0
 22 23  1  0  0  0
 23 24  2  0  0  0
 20 24  1  0  0  0
 22 25  1  0  0  0
 25 26  2  0  0  0
 26 27  1  0  0  0
 27 28  2  0  0  0
 27 29  1  0  0  0
 29 30  1  0  0  0
 30 31  2  0  0  0
 31 32  1  0  0  0
 32 33  2  0  0  0
 33 34  1  0  0  0
 29 34  1  0  0  0
 34 35  2  0  0  0
 25 35  1  0  0  0
 12 13  1  0  0  0
  5 10  1  0  0  0
M  END
> <minimizedAffinity>
-10.31300

$$$$
