mol_0


 42 47  0  0  0  0  0  0  0  0999 V2000
  -42.7087   34.6901   25.2197 C   0  0  0  0  0  0  0  0  0  0  0  0
  -43.8480   34.1374   26.0897 C   0  0  0  0  0  0  0  0  0  0  0  0
  -44.4103   35.3398   26.8626 C   0  0  0  0  0  0  0  0  0  0  0  0
  -43.2754   36.3728   26.9236 C   0  0  0  0  0  0  0  0  0  0  0  0
  -42.4030   36.1202   25.6904 C   0  0  0  0  0  0  0  0  0  0  0  0
  -42.4947   36.1847   28.1173 O   0  0  0  0  0  0  0  0  0  0  0  0
  -44.7798   34.9340   28.1825 O   0  0  0  0  0  0  0  0  0  0  0  0
  -42.6001   35.2520   28.3889 H   0  0  0  0  0  0  0  0  0  0  0  0
  -44.7985   35.7418   28.7312 H   0  0  0  0  0  0  0  0  0  0  0  0
  -42.5528   37.1056   24.6283 N   0  0  0  0  0  0  0  0  0  0  0  0
  -43.4733   37.0112   23.6091 C   0  0  0  0  0  0  0  0  0  0  0  0
  -43.4045   38.1693   22.8639 C   0  0  0  0  0  0  0  0  0  0  0  0
  -42.4025   38.9958   23.4420 C   0  0  0  0  0  0  0  0  0  0  0  0
  -41.8664   40.2669   23.1927 C   0  0  0  0  0  0  0  0  0  0  0  0
  -40.8886   40.7300   23.9958 N   0  0  0  0  0  0  0  0  0  0  0  0
  -40.4719   39.9489   25.0089 C   0  0  0  0  0  0  0  0  0  0  0  0
  -40.9085   38.7238   25.3448 N   0  0  0  0  0  0  0  0  0  0  0  0
  -41.8810   38.2991   24.5236 C   0  0  0  0  0  0  0  0  0  0  0  0
  -42.2893   41.0863   22.1748 N   0  0  0  0  0  0  0  0  0  0  0  0
  -43.0402   40.8229   21.5603 H   0  0  0  0  0  0  0  0  0  0  0  0
  -41.8489   41.9920   22.1118 H   0  0  0  0  0  0  0  0  0  0  0  0
  -44.9227   33.4207   25.2387 C   0  0  0  0  0  0  0  0  0  0  0  0
  -44.7254   33.6379   23.7358 C   0  0  0  0  0  0  0  0  0  0  0  0
  -45.5011   32.7015   22.8370 C   0  0  0  0  0  0  0  0  0  0  0  0
  -44.8708   31.6899   22.0818 C   0  0  0  0  0  0  0  0  0  0  0  0
  -45.6037   30.7106   21.3936 C   0  0  0  0  0  0  0  0  0  0  0  0
  -46.9982   30.7551   21.5011 C   0  0  0  0  0  0  0  0  0  0  0  0
  -47.6442   31.8114   22.1666 C   0  0  0  0  0  0  0  0  0  0  0  0
  -46.8929   32.7837   22.8200 C   0  0  0  0  0  0  0  0  0  0  0  0
  -47.7410   29.7070   20.9530 C   0  0  0  0  0  0  0  0  0  0  0  0
  -47.0798   28.6789   20.2910 C   0  0  0  0  0  0  0  0  0  0  0  0
  -45.7110   28.7514   20.1150 C   0  0  0  0  0  0  0  0  0  0  0  0
  -44.9770   29.7407   20.6766 N   0  0  0  0  0  0  0  0  0  0  0  0
  -45.0103   27.8653   19.3275 N   0  0  0  0  0  0  0  0  0  0  0  0
  -45.5831   27.0911   19.0198 H   0  0  0  0  0  0  0  0  0  0  0  0
  -43.8224   28.1738   18.5596 C   0  0  0  0  0  0  0  0  0  0  0  0
  -42.5059   27.7261   19.1703 C   0  0  0  0  0  0  0  0  0  0  0  0
  -42.3489   26.3669   19.5039 C   0  0  0  0  0  0  0  0  0  0  0  0
  -41.1252   25.8691   19.9621 C   0  0  0  0  0  0  0  0  0  0  0  0
  -40.0284   26.7171   20.0786 C   0  0  0  0  0  0  0  0  0  0  0  0
  -40.1639   28.0656   19.7624 C   0  0  0  0  0  0  0  0  0  0  0  0
  -41.3945   28.5670   19.3255 C   0  0  0  0  0  0  0  0  0  0  0  0
  1  2  1  0  0  0
  2  3  1  0  0  0
  3  4  1  0  0  0
  4  5  1  0  0  0
  1  5  1  0  0  0
  5 10  1  0  0  0
 10 11  1  0  0  0
 11 12  2  0  0  0
 12 13  1  0  0  0
 13 14  2  0  0  0
 14 15  1  0  0  0
 15 16  2  0  0  0
 16 17  1  0  0  0
 17 18  2  0  0  0
 13 18  1  0  0  0
 10 18  1  0  0  0
 14 19  1  0  0  0
  4  6  1  0  0  0
  3  7  1  0  0  0
  2 22  1  0  0  0
 22 23  1  0  0  0
 23 24  1  0  0  0
 24 25  2  0  0  0
 25 26  1  0  0  0
 26 27  2  0  0  0
 27 28  1  0  0  0
 28 29  2  0  0  0
 24 29  1  0  0  0
 27 30  1  0  0  0
 30 31  2  0  0  0
 31 32  1  0  0  0
 32 33  2  0  0  0
 26 33  1  0  0  0
 32 34  1  0  0  0
 34 36  1  0  0  0
 36 37  1  0  0  0
 37 38  2  0  0  0
 38 39  1  0  0  0
 39 40  2  0  0  0
 40 41  1  0  0  0
 41 42  2  0  0  0
 37 42  1  0  0  0
 19 20  1  0  0  0
 19 21  1  0  0  0
  6  8  1  0  0  0
  7  9  1  0  0  0
 34 35  1  0  0  0
M  END
> <minimizedAffinity>
-10.89805

$$$$
