mol_5


 31 35  0  0  0  0  0  0  0  0999 V2000
  -42.6366   36.7937   24.9057 C   0  0  0  0  0  0  0  0  0  0  0  0
  -42.5932   35.4628   25.2536 C   0  0  0  0  0  0  0  0  0  0  0  0
  -43.6207   34.8063   24.6019 N   0  0  0  0  0  0  0  0  0  0  0  0
  -44.3574   35.7474   23.8935 C   0  0  0  0  0  0  0  0  0  0  0  0
  -45.4631   35.5043   23.1613 N   0  0  0  0  0  0  0  0  0  0  0  0
  -45.9693   36.6224   22.6207 C   0  0  0  0  0  0  0  0  0  0  0  0
  -45.5129   37.8817   22.7375 N   0  0  0  0  0  0  0  0  0  0  0  0
  -44.4124   38.0946   23.4838 C   0  0  0  0  0  0  0  0  0  0  0  0
  -43.7863   37.0015   24.1017 C   0  0  0  0  0  0  0  0  0  0  0  0
  -43.9774   39.3934   23.6199 N   0  0  0  0  0  0  0  0  0  0  0  0
  -44.5715   40.1151   23.2454 H   0  0  0  0  0  0  0  0  0  0  0  0
  -43.2954   39.5974   24.3455 H   0  0  0  0  0  0  0  0  0  0  0  0
  -39.6264   40.5458   24.5373 C   0  0  0  0  0  0  0  0  0  0  0  0
  -40.3020   39.4199   25.1347 N   0  0  0  0  0  0  0  0  0  0  0  0
  -40.2821   39.0582   26.4502 C   0  0  0  0  0  0  0  0  0  0  0  0
  -41.1701   38.0142   26.5669 C   0  0  0  0  0  0  0  0  0  0  0  0
  -41.6503   37.8064   25.2565 C   0  0  0  0  0  0  0  0  0  0  0  0
  -41.0772   38.6255   24.3694 N   0  0  0  0  0  0  0  0  0  0  0  0
  -43.7754   33.3982   24.5951 C   0  0  0  0  0  0  0  0  0  0  0  0
  -44.0651   32.7143   25.7699 C   0  0  0  0  0  0  0  0  0  0  0  0
  -44.0757   31.3657   25.8716 N   0  0  0  0  0  0  0  0  0  0  0  0
  -43.7110   30.6747   24.7684 C   0  0  0  0  0  0  0  0  0  0  0  0
  -43.3588   31.2628   23.5561 C   0  0  0  0  0  0  0  0  0  0  0  0
  -43.4862   32.6547   23.4519 C   0  0  0  0  0  0  0  0  0  0  0  0
  -42.7937   30.4154   22.4373 C   0  0  0  0  0  0  0  0  0  0  0  0
  -43.7614   29.4717   21.8326 N   0  0  0  0  0  0  0  0  0  0  0  0
  -44.7534   30.1633   20.9968 C   0  0  0  0  0  0  0  0  0  0  0  0
  -43.0408   28.4667   21.0322 C   0  0  0  0  0  0  0  0  0  0  0  0
  -41.8633   29.0751   20.3289 C   0  0  0  0  0  0  0  0  0  0  0  0
  -40.8358   28.2686   19.5698 C   0  0  0  0  0  0  0  0  0  0  0  0
  -41.8351   29.0967   18.8180 C   0  0  0  0  0  0  0  0  0  0  0  0
 13 14  1  0  0  0
 14 15  1  0  0  0
 15 16  2  0  0  0
 16 17  1  0  0  0
 17 18  2  0  0  0
 14 18  1  0  0  0
 17  1  1  0  0  0
  1  2  2  0  0  0
  2  3  1  0  0  0
  3  4  1  0  0  0
  4  5  2  0  0  0
  5  6  1  0  0  0
  6  7  2  0  0  0
  7  8  1  0  0  0
  8  9  2  0  0  0
  1  9  1  0  0  0
  4  9  1  0  0  0
  8 10  1  0  0  0
  3 19  1  0  0  0
 19 20  2  0  0  0
 20 21  1  0  0  0
 21 22  2  0  0  0
 22 23  1  0  0  0
 23 24  2  0  0  0
 19 24  1  0  0  0
 23 25  1  0  0  0
 25 26  1  0  0  0
 26 27  1  0  0  0
 26 28  1  0  0  0
 28 29  1  0  0  0
 29 30  1  0  0  0
 30 31  1  0  0  0
 29 31  1  0  0  0
 10 11  1  0  0  0
 10 12  1  0  0  0
M  END
> <minimizedAffinity>
-8.78721

$$$$
