mol_2


 41 46  0  0  0  0  0  0  0  0999 V2000
  -48.6018   36.0854   24.0442 N   0  0  0  0  0  0  0  0  0  0  0  0
  -49.9404   36.0805   24.6329 C   0  0  0  0  0  0  0  0  0  0  0  0
  -50.6440   34.8006   24.1808 C   0  0  0  0  0  0  0  0  0  0  0  0
  -49.9505   33.6433   24.6597 O   0  0  0  0  0  0  0  0  0  0  0  0
  -48.5787   33.5490   24.2007 C   0  0  0  0  0  0  0  0  0  0  0  0
  -47.7888   34.8976   24.3674 C   0  0  0  0  0  0  0  0  0  0  0  0
  -47.9544   32.4944   25.1324 C   0  0  0  0  0  0  0  0  0  0  0  0
  -46.5090   32.2039   24.7645 C   0  0  0  0  0  0  0  0  0  0  0  0
  -46.3571   32.1047   23.3141 N   0  0  0  0  0  0  0  0  0  0  0  0
  -47.5502   31.8722   22.5162 C   0  0  0  0  0  0  0  0  0  0  0  0
  -48.5314   33.0420   22.7322 C   0  0  0  0  0  0  0  0  0  0  0  0
  -46.5144   39.6570   23.4043 C   0  0  0  0  0  0  0  0  0  0  0  0
  -47.2539   39.1519   22.3877 N   0  0  0  0  0  0  0  0  0  0  0  0
  -47.9303   37.9930   22.6237 C   0  0  0  0  0  0  0  0  0  0  0  0
  -47.9341   37.2810   23.8262 C   0  0  0  0  0  0  0  0  0  0  0  0
  -47.1743   37.8461   24.8479 C   0  0  0  0  0  0  0  0  0  0  0  0
  -46.4806   39.0368   24.6504 C   0  0  0  0  0  0  0  0  0  0  0  0
  -45.7446   40.9548   23.1742 C   0  0  0  0  0  0  0  0  0  0  0  0
  -41.0914   41.5725   21.7681 C   0  0  0  0  0  0  0  0  0  0  0  0
  -42.0643   41.4959   22.9594 C   0  0  0  0  0  0  0  0  0  0  0  0
  -43.1302   42.6138   22.8680 C   0  0  0  0  0  0  0  0  0  0  0  0
  -44.2348   42.3310   21.8369 C   0  0  0  0  0  0  0  0  0  0  0  0
  -44.8663   41.0079   21.9795 N   0  0  0  0  0  0  0  0  0  0  0  0
  -43.8340   39.9691   21.9145 C   0  0  0  0  0  0  0  0  0  0  0  0
  -42.7527   40.1161   22.9898 C   0  0  0  0  0  0  0  0  0  0  0  0
  -41.2495   41.6749   24.2542 C   0  0  0  0  0  0  0  0  0  0  0  0
  -45.1325   31.6014   22.8772 C   0  0  0  0  0  0  0  0  0  0  0  0
  -44.0379   31.6766   23.6405 N   0  0  0  0  0  0  0  0  0  0  0  0
  -42.9031   31.2107   23.0875 C   0  0  0  0  0  0  0  0  0  0  0  0
  -42.7631   30.6504   21.8715 N   0  0  0  0  0  0  0  0  0  0  0  0
  -43.8774   30.5385   21.1440 C   0  0  0  0  0  0  0  0  0  0  0  0
  -45.0783   31.0217   21.6240 C   0  0  0  0  0  0  0  0  0  0  0  0
  -43.7790   29.9123   19.9178 N   0  0  0  0  0  0  0  0  0  0  0  0
  -44.6473   29.5847   19.5227 H   0  0  0  0  0  0  0  0  0  0  0  0
  -42.4965   29.6579   19.3046 C   0  0  0  0  0  0  0  0  0  0  0  0
  -41.8504   28.3216   19.5687 C   0  0  0  0  0  0  0  0  0  0  0  0
  -40.4452   28.3201   19.6916 C   0  0  0  0  0  0  0  0  0  0  0  0
  -39.7345   27.1348   19.8640 C   0  0  0  0  0  0  0  0  0  0  0  0
  -40.4195   25.9270   19.9227 C   0  0  0  0  0  0  0  0  0  0  0  0
  -41.8094   25.9091   19.8062 C   0  0  0  0  0  0  0  0  0  0  0  0
  -42.5236   27.0981   19.6233 C   0  0  0  0  0  0  0  0  0  0  0  0
 19 20  1  0  0  0
 20 21  1  0  0  0
 21 22  1  0  0  0
 22 23  1  0  0  0
 23 24  1  0  0  0
 24 25  1  0  0  0
 20 25  1  0  0  0
 23 18  1  0  0  0
 18 12  1  0  0  0
 12 13  2  0  0  0
 13 14  1  0  0  0
 14 15  2  0  0  0
 15 16  1  0  0  0
 16 17  2  0  0  0
 12 17  1  0  0  0
 15  1  1  0  0  0
  1  2  1  0  0  0
  2  3  1  0  0  0
  3  4  1  0  0  0
  4  5  1  0  0  0
  5  6  1  0  0  0
  1  6  1  0  0  0
  5  7  1  0  0  0
  7  8  1  0  0  0
  8  9  1  0  0  0
  9 10  1  0  0  0
 10 11  1  0  0  0
  5 11  1  0  0  0
  9 27  1  0  0  0
 27 28  2  0  0  0
 28 29  1  0  0  0
 29 30  2  0  0  0
 30 31  1  0  0  0
 31 32  2  0  0  0
 27 32  1  0  0  0
 31 33  1  0  0  0
 33 35  1  0  0  0
 35 36  1  0  0  0
 36 37  2  0  0  0
 37 38  1  0  0  0
 38 39  2  0  0  0
 39 40  1  0  0  0
 40 41  2  0  0  0
 36 41  1  0  0  0
 20 26  1  0  0  0
 33 34  1  0  0  0
M  END
> <minimizedAffinity>
-9.23089

$$$$
