mol_0
     RDKit          3D

 42 47  0  0  0  0  0  0  0  0999 V2000
  -42.7087   34.6901   25.2197 C   0  0  0  0  0  0  0  0  0  0  0  0
  -43.8480   34.1374   26.0897 C   0  0  1  0  0  0  0  0  0  0  0  0
  -44.4103   35.3398   26.8626 C   0  0  2  0  0  0  0  0  0  0  0  0
  -43.2754   36.3728   26.9236 C   0  0  2  0  0  0  0  0  0  0  0  0
  -42.4030   36.1202   25.6904 C   0  0  2  0  0  0  0  0  0  0  0  0
  -42.4947   36.1847   28.1173 O   0  0  0  0  0  0  0  0  0  0  0  0
  -44.7798   34.9340   28.1825 O   0  0  0  0  0  0  0  0  0  0  0  0
  -42.6001   35.2520   28.3889 H   0  0  0  0  0  0  0  0  0  0  0  0
  -44.7985   35.7418   28.7312 H   0  0  0  0  0  0  0  0  0  0  0  0
  -42.5528   37.1056   24.6283 N   0  0  0  0  0  0  0  0  0  0  0  0
  -43.4733   37.0112   23.6091 C   0  0  0  0  0  0  0  0  0  0  0  0
  -43.4045   38.1693   22.8639 C   0  0  0  0  0  0  0  0  0  0  0  0
  -42.4025   38.9958   23.4420 C   0  0  0  0  0  0  0  0  0  0  0  0
  -41.8664   40.2669   23.1927 C   0  0  0  0  0  0  0  0  0  0  0  0
  -40.8886   40.7300   23.9958 N   0  0  0  0  0  0  0  0  0  0  0  0
  -40.4719   39.9489   25.0089 C   0  0  0  0  0  0  0  0  0  0  0  0
  -40.9085   38.7238   25.3448 N   0  0  0  0  0  0  0  0  0  0  0  0
  -41.8810   38.2991   24.5236 C   0  0  0  0  0  0  0  0  0  0  0  0
  -42.2893   41.0863   22.1748 N   0  0  0  0  0  0  0  0  0  0  0  0
  -43.0402   40.8229   21.5603 H   0  0  0  0  0  0  0  0  0  0  0  0
  -41.8489   41.9920   22.1118 H   0  0  0  0  0  0  0  0  0  0  0  0
  -44.9227   33.4207   25.2387 C   0  0  0  0  0  0  0  0  0  0  0  0
  -44.7254   33.6379   23.7358 C   0  0  0  0  0  0  0  0  0  0  0  0
  -45.5011   32.7015   22.8370 C   0  0  0  0  0  0  0  0  0  0  0  0
  -44.8708   31.6899   22.0818 C   0  0  0  0  0  0  0  0  0  0  0  0
  -45.6037   30.7106   21.3936 C   0  0  0  0  0  0  0  0  0  0  0  0
  -46.9982   30.7551   21.5011 C   0  0  0  0  0  0  0  0  0  0  0  0
  -47.6442   31.8114   22.1666 C   0  0  0  0  0  0  0  0  0  0  0  0
  -46.8929   32.7837   22.8200 C   0  0  0  0  0  0  0  0  0  0  0  0
  -47.7410   29.7070   20.9530 C   0  0  0  0  0  0  0  0  0  0  0  0
  -47.0798   28.6789   20.2910 C   0  0  0  0  0  0  0  0  0  0  0  0
  -45.7110   28.7514   20.1150 C   0  0  0  0  0  0  0  0  0  0  0  0
  -44.9770   29.7407   20.6766 N   0  0  0  0  0  0  0  0  0  0  0  0
  -45.0103   27.8653   19.3275 N   0  0  0  0  0  0  0  0  0  0  0  0
  -45.5831   27.0911   19.0198 H   0  0  0  0  0  0  0  0  0  0  0  0
  -43.8224   28.1738   18.5596 C   0  0  0  0  0  0  0  0  0  0  0  0
  -42.5059   27.7261   19.1703 C   0  0  0  0  0  0  0  0  0  0  0  0
  -42.3489   26.3669   19.5039 C   0  0  0  0  0  0  0  0  0  0  0  0
  -41.1252   25.8691   19.9621 C   0  0  0  0  0  0  0  0  0  0  0  0
  -40.0284   26.7171   20.0786 C   0  0  0  0  0  0  0  0  0  0  0  0
  -40.1639   28.0656   19.7624 C   0  0  0  0  0  0  0  0  0  0  0  0
  -41.3945   28.5670   19.3255 C   0  0  0  0  0  0  0  0  0  0  0  0
  1  2  1  0
  2  3  1  0
  3  4  1  0
  4  5  1  0
  1  5  1  0
  5 10  1  6
 10 11  1  0
 11 12  2  0
 12 13  1  0
 13 14  2  0
 14 15  1  0
 15 16  2  0
 16 17  1  0
 17 18  2  0
 13 18  1  0
 10 18  1  0
 14 19  1  0
  4  6  1  1
  3  7  1  1
  2 22  1  6
 22 23  1  0
 23 24  1  0
 24 25  2  0
 25 26  1  0
 26 27  2  0
 27 28  1  0
 28 29  2  0
 24 29  1  0
 27 30  1  0
 30 31  2  0
 31 32  1  0
 32 33  2  0
 26 33  1  0
 32 34  1  0
 34 36  1  0
 36 37  1  0
 37 38  2  0
 38 39  1  0
 39 40  2  0
 40 41  1  0
 41 42  2  0
 37 42  1  0
 19 20  1  0
 19 21  1  0
  6  8  1  0
  7  9  1  0
 34 35  1  0
M  END
>  <minimizedAffinity>  (1) 
-10.89805

$$$$
mol_1
     RDKit          3D

 34 38  0  0  0  0  0  0  0  0999 V2000
  -45.2917   29.7642   20.7749 C   0  0  0  0  0  0  0  0  0  0  0  0
  -46.2887   30.4740   21.3457 C   0  0  0  0  0  0  0  0  0  0  0  0
  -46.0015   31.6787   21.9777 N   0  0  0  0  0  0  0  0  0  0  0  0
  -46.8541   32.5774   22.5688 C   0  0  0  0  0  0  0  0  0  0  0  0
  -46.0581   33.6078   23.0348 C   0  0  0  0  0  0  0  0  0  0  0  0
  -44.7316   33.3461   22.7400 N   0  0  0  0  0  0  0  0  0  0  0  0
  -44.7216   32.2005   22.0935 C   0  0  0  0  0  0  0  0  0  0  0  0
  -43.6614   31.4519   21.5103 C   0  0  0  0  0  0  0  0  0  0  0  0
  -43.9291   30.2933   20.8748 C   0  0  0  0  0  0  0  0  0  0  0  0
  -45.5333   28.4739   20.0355 C   0  0  0  0  0  0  0  0  0  0  0  0
  -44.7531   28.4699   18.7975 N   0  0  0  0  0  0  0  0  0  0  0  0
  -45.3968   28.5434   18.0130 H   0  0  0  0  0  0  0  0  0  0  0  0
  -43.9510   27.2537   18.6640 C   0  0  0  0  0  0  0  0  0  0  0  0
  -39.7190   27.1027   19.8301 C   0  0  0  0  0  0  0  0  0  0  0  0
  -40.6461   25.9807   20.2828 C   0  0  0  0  0  0  0  0  0  0  0  0
  -41.9439   25.9644   19.4786 C   0  0  0  0  0  0  0  0  0  0  0  0
  -42.6715   27.3198   19.5279 C   0  0  0  0  0  0  0  0  0  0  0  0
  -41.7205   28.4489   19.0831 C   0  0  0  0  0  0  0  0  0  0  0  0
  -40.4192   28.4543   19.8818 C   0  0  0  0  0  0  0  0  0  0  0  0
  -46.4078   34.8792   23.7355 C   0  0  0  0  0  0  0  0  0  0  0  0
  -45.2931   35.7973   23.8053 N   0  0  0  0  0  0  0  0  0  0  0  0
  -44.4581   35.8144   24.9004 C   0  0  0  0  0  0  0  0  0  0  0  0
  -44.5796   35.0643   25.8630 O   0  0  0  0  0  0  0  0  0  0  0  0
  -45.1578   36.5096   23.0966 H   0  0  0  0  0  0  0  0  0  0  0  0
  -43.3539   36.8097   24.8531 C   0  0  0  0  0  0  0  0  0  0  0  0
  -42.6190   37.0099   25.9827 N   0  0  0  0  0  0  0  0  0  0  0  0
  -41.6343   37.9303   25.8816 C   0  0  0  0  0  0  0  0  0  0  0  0
  -40.8042   38.1768   26.9697 C   0  0  0  0  0  0  0  0  0  0  0  0
  -39.7817   39.1274   26.9084 C   0  0  0  0  0  0  0  0  0  0  0  0
  -39.5856   39.8531   25.7407 C   0  0  0  0  0  0  0  0  0  0  0  0
  -40.4037   39.6127   24.6374 C   0  0  0  0  0  0  0  0  0  0  0  0
  -41.4140   38.6613   24.6811 C   0  0  0  0  0  0  0  0  0  0  0  0
  -42.1605   38.4515   23.5809 N   0  0  0  0  0  0  0  0  0  0  0  0
  -43.1258   37.5076   23.6813 C   0  0  0  0  0  0  0  0  0  0  0  0
 14 15  1  0
 15 16  1  0
 16 17  1  0
 17 18  1  0
 18 19  1  0
 14 19  1  0
 17 13  1  0
 13 11  1  0
 11 10  1  0
 10  1  1  0
  1  2  2  0
  2  3  1  0
  3  4  1  0
  4  5  2  0
  5  6  1  0
  6  7  2  0
  3  7  1  0
  7  8  1  0
  8  9  2  0
  1  9  1  0
  5 20  1  0
 20 21  1  0
 21 22  1  0
 22 23  2  0
 22 25  1  0
 25 26  2  0
 26 27  1  0
 27 28  2  0
 28 29  1  0
 29 30  2  0
 30 31  1  0
 31 32  2  0
 27 32  1  0
 32 33  1  0
 33 34  2  0
 25 34  1  0
 11 12  1  0
 21 24  1  0
M  END
>  <minimizedAffinity>  (2) 
-9.59924

$$$$
mol_2
     RDKit          3D

 41 46  0  0  0  0  0  0  0  0999 V2000
  -48.6018   36.0854   24.0442 N   0  0  0  0  0  0  0  0  0  0  0  0
  -49.9404   36.0805   24.6329 C   0  0  0  0  0  0  0  0  0  0  0  0
  -50.6440   34.8006   24.1808 C   0  0  0  0  0  0  0  0  0  0  0  0
  -49.9505   33.6433   24.6597 O   0  0  0  0  0  0  0  0  0  0  0  0
  -48.5787   33.5490   24.2007 C   0  0  0  0  0  0  0  0  0  0  0  0
  -47.7888   34.8976   24.3674 C   0  0  0  0  0  0  0  0  0  0  0  0
  -47.9544   32.4944   25.1324 C   0  0  0  0  0  0  0  0  0  0  0  0
  -46.5090   32.2039   24.7645 C   0  0  0  0  0  0  0  0  0  0  0  0
  -46.3571   32.1047   23.3141 N   0  0  0  0  0  0  0  0  0  0  0  0
  -47.5502   31.8722   22.5162 C   0  0  0  0  0  0  0  0  0  0  0  0
  -48.5314   33.0420   22.7322 C   0  0  0  0  0  0  0  0  0  0  0  0
  -46.5144   39.6570   23.4043 C   0  0  0  0  0  0  0  0  0  0  0  0
  -47.2539   39.1519   22.3877 N   0  0  0  0  0  0  0  0  0  0  0  0
  -47.9303   37.9930   22.6237 C   0  0  0  0  0  0  0  0  0  0  0  0
  -47.9341   37.2810   23.8262 C   0  0  0  0  0  0  0  0  0  0  0  0
  -47.1743   37.8461   24.8479 C   0  0  0  0  0  0  0  0  0  0  0  0
  -46.4806   39.0368   24.6504 C   0  0  0  0  0  0  0  0  0  0  0  0
  -45.7446   40.9548   23.1742 C   0  0  0  0  0  0  0  0  0  0  0  0
  -41.0914   41.5725   21.7681 C   0  0  0  0  0  0  0  0  0  0  0  0
  -42.0643   41.4959   22.9594 C   0  0  0  0  0  0  0  0  0  0  0  0
  -43.1302   42.6138   22.8680 C   0  0  0  0  0  0  0  0  0  0  0  0
  -44.2348   42.3310   21.8369 C   0  0  0  0  0  0  0  0  0  0  0  0
  -44.8663   41.0079   21.9795 N   0  0  0  0  0  0  0  0  0  0  0  0
  -43.8340   39.9691   21.9145 C   0  0  0  0  0  0  0  0  0  0  0  0
  -42.7527   40.1161   22.9898 C   0  0  0  0  0  0  0  0  0  0  0  0
  -41.2495   41.6749   24.2542 C   0  0  0  0  0  0  0  0  0  0  0  0
  -45.1325   31.6014   22.8772 C   0  0  0  0  0  0  0  0  0  0  0  0
  -44.0379   31.6766   23.6405 N   0  0  0  0  0  0  0  0  0  0  0  0
  -42.9031   31.2107   23.0875 C   0  0  0  0  0  0  0  0  0  0  0  0
  -42.7631   30.6504   21.8715 N   0  0  0  0  0  0  0  0  0  0  0  0
  -43.8774   30.5385   21.1440 C   0  0  0  0  0  0  0  0  0  0  0  0
  -45.0783   31.0217   21.6240 C   0  0  0  0  0  0  0  0  0  0  0  0
  -43.7790   29.9123   19.9178 N   0  0  0  0  0  0  0  0  0  0  0  0
  -44.6473   29.5847   19.5227 H   0  0  0  0  0  0  0  0  0  0  0  0
  -42.4965   29.6579   19.3046 C   0  0  0  0  0  0  0  0  0  0  0  0
  -41.8504   28.3216   19.5687 C   0  0  0  0  0  0  0  0  0  0  0  0
  -40.4452   28.3201   19.6916 C   0  0  0  0  0  0  0  0  0  0  0  0
  -39.7345   27.1348   19.8640 C   0  0  0  0  0  0  0  0  0  0  0  0
  -40.4195   25.9270   19.9227 C   0  0  0  0  0  0  0  0  0  0  0  0
  -41.8094   25.9091   19.8062 C   0  0  0  0  0  0  0  0  0  0  0  0
  -42.5236   27.0981   19.6233 C   0  0  0  0  0  0  0  0  0  0  0  0
 19 20  1  0
 20 21  1  0
 21 22  1  0
 22 23  1  0
 23 24  1  0
 24 25  1  0
 20 25  1  0
 23 18  1  0
 18 12  1  0
 12 13  2  0
 13 14  1  0
 14 15  2  0
 15 16  1  0
 16 17  2  0
 12 17  1  0
 15  1  1  0
  1  2  1  0
  2  3  1  0
  3  4  1  0
  4  5  1  0
  5  6  1  0
  1  6  1  0
  5  7  1  0
  7  8  1  0
  8  9  1  0
  9 10  1  0
 10 11  1  0
  5 11  1  0
  9 27  1  0
 27 28  2  0
 28 29  1  0
 29 30  2  0
 30 31  1  0
 31 32  2  0
 27 32  1  0
 31 33  1  0
 33 35  1  0
 35 36  1  0
 36 37  2  0
 37 38  1  0
 38 39  2  0
 39 40  1  0
 40 41  2  0
 36 41  1  0
 20 26  1  0
 33 34  1  0
M  END
>  <minimizedAffinity>  (3) 
-9.23089

$$$$
mol_3
     RDKit          3D

 39 44  0  0  0  0  0  0  0  0999 V2000
  -43.2947   35.9757   25.4868 N   0  0  0  0  0  0  0  0  0  0  0  0
  -43.2652   36.1709   26.9431 C   0  0  0  0  0  0  0  0  0  0  0  0
  -44.2188   35.2210   27.6665 C   0  0  0  0  0  0  0  0  0  0  0  0
  -44.6717   35.4611   28.7802 O   0  0  0  0  0  0  0  0  0  0  0  0
  -44.5073   34.0229   27.0711 N   0  0  0  0  0  0  0  0  0  0  0  0
  -44.0217   33.5569   25.7593 C   0  0  0  0  0  0  0  0  0  0  0  0
  -43.0843   34.5967   25.0344 C   0  0  0  0  0  0  0  0  0  0  0  0
  -43.1880   32.2817   26.0219 C   0  0  0  0  0  0  0  0  0  0  0  0
  -42.8270   31.5994   24.7114 C   0  0  0  0  0  0  0  0  0  0  0  0
  -44.0215   31.3499   23.9171 N   0  0  0  0  0  0  0  0  0  0  0  0
  -45.3218   31.7517   24.4355 C   0  0  0  0  0  0  0  0  0  0  0  0
  -45.2548   33.2271   24.8626 C   0  0  0  0  0  0  0  0  0  0  0  0
  -45.1436   33.4434   27.6045 H   0  0  0  0  0  0  0  0  0  0  0  0
  -42.2995   39.2487   22.9818 C   0  0  0  0  0  0  0  0  0  0  0  0
  -41.5649   39.0106   24.1452 C   0  0  0  0  0  0  0  0  0  0  0  0
  -41.8524   37.8982   24.9537 C   0  0  0  0  0  0  0  0  0  0  0  0
  -42.8928   37.0076   24.6445 C   0  0  0  0  0  0  0  0  0  0  0  0
  -43.5745   37.2296   23.4436 C   0  0  0  0  0  0  0  0  0  0  0  0
  -43.2633   38.3049   22.6115 C   0  0  0  0  0  0  0  0  0  0  0  0
  -42.1338   40.5274   22.1807 C   0  0  0  0  0  0  0  0  0  0  0  0
  -45.4905   44.0037   21.3719 C   0  0  0  0  0  0  0  0  0  0  0  0
  -44.7561   42.7753   20.8040 C   0  0  0  0  0  0  0  0  0  0  0  0
  -43.2342   43.0388   20.7000 C   0  0  0  0  0  0  0  0  0  0  0  0
  -42.4913   42.9445   22.0421 C   0  0  0  0  0  0  0  0  0  0  0  0
  -42.7673   41.7132   22.7996 N   0  0  0  0  0  0  0  0  0  0  0  0
  -44.2178   41.6004   23.0100 C   0  0  0  0  0  0  0  0  0  0  0  0
  -45.0178   41.5520   21.7041 C   0  0  0  0  0  0  0  0  0  0  0  0
  -45.3167   42.4898   19.3980 C   0  0  0  0  0  0  0  0  0  0  0  0
  -43.9372   30.7099   22.6897 C   0  0  0  0  0  0  0  0  0  0  0  0
  -44.9760   30.7359   21.8446 N   0  0  0  0  0  0  0  0  0  0  0  0
  -44.7950   30.1492   20.6506 C   0  0  0  0  0  0  0  0  0  0  0  0
  -43.6552   29.6166   20.1847 N   0  0  0  0  0  0  0  0  0  0  0  0
  -42.6111   29.6468   21.0214 C   0  0  0  0  0  0  0  0  0  0  0  0
  -42.7571   30.1018   22.3090 C   0  0  0  0  0  0  0  0  0  0  0  0
  -41.3823   29.2255   20.5005 N   0  0  0  0  0  0  0  0  0  0  0  0
  -40.6425   29.5944   21.0935 H   0  0  0  0  0  0  0  0  0  0  0  0
  -41.0893   28.0879   19.6267 C   0  0  0  0  0  0  0  0  0  0  0  0
  -39.9230   27.1454   19.7481 C   0  0  0  0  0  0  0  0  0  0  0  0
  -41.3210   26.6558   20.0182 C   0  0  0  0  0  0  0  0  0  0  0  0
 21 22  1  0
 22 23  1  0
 23 24  1  0
 24 25  1  0
 25 26  1  0
 26 27  1  0
 22 27  1  0
 25 20  1  0
 20 14  1  0
 14 15  2  0
 15 16  1  0
 16 17  2  0
 17 18  1  0
 18 19  2  0
 14 19  1  0
 17  1  1  0
  1  2  1  0
  2  3  1  0
  3  4  2  0
  3  5  1  0
  5  6  1  0
  6  7  1  0
  1  7  1  0
  6  8  1  0
  8  9  1  0
  9 10  1  0
 10 11  1  0
 11 12  1  0
  6 12  1  0
 10 29  1  0
 29 30  2  0
 30 31  1  0
 31 32  2  0
 32 33  1  0
 33 34  2  0
 29 34  1  0
 33 35  1  0
 35 37  1  0
 37 38  1  0
 38 39  1  0
 37 39  1  0
 22 28  1  0
  5 13  1  0
 35 36  1  0
M  END
>  <minimizedAffinity>  (4) 
-9.11434

$$$$
mol_4
     RDKit          3D

 35 40  0  0  0  0  0  0  0  0999 V2000
  -43.4583   31.1427   21.4927 C   0  0  0  0  0  0  0  0  0  0  0  0
  -44.7478   31.5777   21.7261 C   0  0  0  0  0  0  0  0  0  0  0  0
  -44.7768   32.2053   22.9983 C   0  0  0  0  0  0  0  0  0  0  0  0
  -43.4956   32.1130   23.5363 C   0  0  0  0  0  0  0  0  0  0  0  0
  -42.7062   31.5004   22.5869 N   0  0  0  0  0  0  0  0  0  0  0  0
  -43.1765   32.5975   24.8142 C   0  0  0  0  0  0  0  0  0  0  0  0
  -44.1954   33.2083   25.5743 C   0  0  0  0  0  0  0  0  0  0  0  0
  -45.4719   33.3581   25.0081 C   0  0  0  0  0  0  0  0  0  0  0  0
  -45.7788   32.8470   23.7417 C   0  0  0  0  0  0  0  0  0  0  0  0
  -41.7131   31.3402   22.6819 H   0  0  0  0  0  0  0  0  0  0  0  0
  -42.8776   30.4255   20.3251 C   0  0  0  0  0  0  0  0  0  0  0  0
  -41.8429   29.5116   20.7959 N   0  0  0  0  0  0  0  0  0  0  0  0
  -41.0054   29.6614   20.2336 H   0  0  0  0  0  0  0  0  0  0  0  0
  -42.2755   28.1195   20.6639 C   0  0  0  0  0  0  0  0  0  0  0  0
  -40.2578   25.8435   20.3652 C   0  0  0  0  0  0  0  0  0  0  0  0
  -39.9583   27.2643   19.8514 C   0  0  0  0  0  0  0  0  0  0  0  0
  -41.4742   27.4238   19.5600 C   0  0  0  0  0  0  0  0  0  0  0  0
  -41.5407   25.8715   19.5120 C   0  0  0  0  0  0  0  0  0  0  0  0
  -43.8464   33.7140   26.9644 C   0  0  0  0  0  0  0  0  0  0  0  0
  -43.2894   35.0581   26.9850 N   0  0  0  0  0  0  0  0  0  0  0  0
  -43.1518   35.9296   25.9396 C   0  0  0  0  0  0  0  0  0  0  0  0
  -42.3144   36.8975   26.4466 C   0  0  0  0  0  0  0  0  0  0  0  0
  -42.0787   36.6567   27.7727 N   0  0  0  0  0  0  0  0  0  0  0  0
  -42.7162   35.5400   28.1044 N   0  0  0  0  0  0  0  0  0  0  0  0
  -41.6719   37.9572   25.7380 C   0  0  0  0  0  0  0  0  0  0  0  0
  -40.6118   38.6083   26.2259 C   0  0  0  0  0  0  0  0  0  0  0  0
  -40.0479   39.7234   25.4516 C   0  0  0  0  0  0  0  0  0  0  0  0
  -39.0694   40.3158   25.9041 O   0  0  0  0  0  0  0  0  0  0  0  0
  -40.6945   40.0238   24.2639 N   0  0  0  0  0  0  0  0  0  0  0  0
  -40.2384   41.0820   23.4857 C   0  0  0  0  0  0  0  0  0  0  0  0
  -40.8329   41.4178   22.3335 C   0  0  0  0  0  0  0  0  0  0  0  0
  -41.9725   40.6711   21.8705 C   0  0  0  0  0  0  0  0  0  0  0  0
  -42.4431   39.6412   22.5835 C   0  0  0  0  0  0  0  0  0  0  0  0
  -41.7900   39.2675   23.8699 C   0  0  0  0  0  0  0  0  0  0  0  0
  -42.2749   38.2761   24.5482 N   0  0  0  0  0  0  0  0  0  0  0  0
 15 16  1  0
 16 17  1  0
 17 18  1  0
 15 18  1  0
 17 14  1  0
 14 12  1  0
 12 11  1  0
 11  1  1  0
  1  2  2  0
  2  3  1  0
  3  4  2  0
  4  5  1  0
  1  5  1  0
  4  6  1  0
  6  7  2  0
  7  8  1  0
  8  9  2  0
  3  9  1  0
  7 19  1  0
 19 20  1  0
 20 21  1  0
 21 22  2  0
 22 23  1  0
 23 24  2  0
 20 24  1  0
 22 25  1  0
 25 26  2  0
 26 27  1  0
 27 28  2  0
 27 29  1  0
 29 30  1  0
 30 31  2  0
 31 32  1  0
 32 33  2  0
 33 34  1  0
 29 34  1  0
 34 35  2  0
 25 35  1  0
 12 13  1  0
  5 10  1  0
M  END
>  <minimizedAffinity>  (5) 
-10.31300

$$$$
mol_5
     RDKit          3D

 31 35  0  0  0  0  0  0  0  0999 V2000
  -42.6366   36.7937   24.9057 C   0  0  0  0  0  0  0  0  0  0  0  0
  -42.5932   35.4628   25.2536 C   0  0  0  0  0  0  0  0  0  0  0  0
  -43.6207   34.8063   24.6019 N   0  0  0  0  0  0  0  0  0  0  0  0
  -44.3574   35.7474   23.8935 C   0  0  0  0  0  0  0  0  0  0  0  0
  -45.4631   35.5043   23.1613 N   0  0  0  0  0  0  0  0  0  0  0  0
  -45.9693   36.6224   22.6207 C   0  0  0  0  0  0  0  0  0  0  0  0
  -45.5129   37.8817   22.7375 N   0  0  0  0  0  0  0  0  0  0  0  0
  -44.4124   38.0946   23.4838 C   0  0  0  0  0  0  0  0  0  0  0  0
  -43.7863   37.0015   24.1017 C   0  0  0  0  0  0  0  0  0  0  0  0
  -43.9774   39.3934   23.6199 N   0  0  0  0  0  0  0  0  0  0  0  0
  -44.5715   40.1151   23.2454 H   0  0  0  0  0  0  0  0  0  0  0  0
  -43.2954   39.5974   24.3455 H   0  0  0  0  0  0  0  0  0  0  0  0
  -39.6264   40.5458   24.5373 C   0  0  0  0  0  0  0  0  0  0  0  0
  -40.3020   39.4199   25.1347 N   0  0  0  0  0  0  0  0  0  0  0  0
  -40.2821   39.0582   26.4502 C   0  0  0  0  0  0  0  0  0  0  0  0
  -41.1701   38.0142   26.5669 C   0  0  0  0  0  0  0  0  0  0  0  0
  -41.6503   37.8064   25.2565 C   0  0  0  0  0  0  0  0  0  0  0  0
  -41.0772   38.6255   24.3694 N   0  0  0  0  0  0  0  0  0  0  0  0
  -43.7754   33.3982   24.5951 C   0  0  0  0  0  0  0  0  0  0  0  0
  -44.0651   32.7143   25.7699 C   0  0  0  0  0  0  0  0  0  0  0  0
  -44.0757   31.3657   25.8716 N   0  0  0  0  0  0  0  0  0  0  0  0
  -43.7110   30.6747   24.7684 C   0  0  0  0  0  0  0  0  0  0  0  0
  -43.3588   31.2628   23.5561 C   0  0  0  0  0  0  0  0  0  0  0  0
  -43.4862   32.6547   23.4519 C   0  0  0  0  0  0  0  0  0  0  0  0
  -42.7937   30.4154   22.4373 C   0  0  0  0  0  0  0  0  0  0  0  0
  -43.7614   29.4717   21.8326 N   0  0  0  0  0  0  0  0  0  0  0  0
  -44.7534   30.1633   20.9968 C   0  0  0  0  0  0  0  0  0  0  0  0
  -43.0408   28.4667   21.0322 C   0  0  0  0  0  0  0  0  0  0  0  0
  -41.8633   29.0751   20.3289 C   0  0  0  0  0  0  0  0  0  0  0  0
  -40.8358   28.2686   19.5698 C   0  0  0  0  0  0  0  0  0  0  0  0
  -41.8351   29.0967   18.8180 C   0  0  0  0  0  0  0  0  0  0  0  0
 13 14  1  0
 14 15  1  0
 15 16  2  0
 16 17  1  0
 17 18  2  0
 14 18  1  0
 17  1  1  0
  1  2  2  0
  2  3  1  0
  3  4  1  0
  4  5  2  0
  5  6  1  0
  6  7  2  0
  7  8  1  0
  8  9  2  0
  1  9  1  0
  4  9  1  0
  8 10  1  0
  3 19  1  0
 19 20  2  0
 20 21  1  0
 21 22  2  0
 22 23  1  0
 23 24  2  0
 19 24  1  0
 23 25  1  0
 25 26  1  0
 26 27  1  0
 26 28  1  0
 28 29  1  0
 29 30  1  0
 30 31  1  0
 29 31  1  0
 10 11  1  0
 10 12  1  0
M  END
>  <minimizedAffinity>  (6) 
-8.78721

$$$$
