mol_1


 34 38  0  0  0  0  0  0  0  0999 V2000
  -45.2917   29.7642   20.7749 C   0  0  0  0  0  0  0  0  0  0  0  0
  -46.2887   30.4740   21.3457 C   0  0  0  0  0  0  0  0  0  0  0  0
  -46.0015   31.6787   21.9777 N   0  0  0  0  0  0  0  0  0  0  0  0
  -46.8541   32.5774   22.5688 C   0  0  0  0  0  0  0  0  0  0  0  0
  -46.0581   33.6078   23.0348 C   0  0  0  0  0  0  0  0  0  0  0  0
  -44.7316   33.3461   22.7400 N   0  0  0  0  0  0  0  0  0  0  0  0
  -44.7216   32.2005   22.0935 C   0  0  0  0  0  0  0  0  0  0  0  0
  -43.6614   31.4519   21.5103 C   0  0  0  0  0  0  0  0  0  0  0  0
  -43.9291   30.2933   20.8748 C   0  0  0  0  0  0  0  0  0  0  0  0
  -45.5333   28.4739   20.0355 C   0  0  0  0  0  0  0  0  0  0  0  0
  -44.7531   28.4699   18.7975 N   0  0  0  0  0  0  0  0  0  0  0  0
  -45.3968   28.5434   18.0130 H   0  0  0  0  0  0  0  0  0  0  0  0
  -43.9510   27.2537   18.6640 C   0  0  0  0  0  0  0  0  0  0  0  0
  -39.7190   27.1027   19.8301 C   0  0  0  0  0  0  0  0  0  0  0  0
  -40.6461   25.9807   20.2828 C   0  0  0  0  0  0  0  0  0  0  0  0
  -41.9439   25.9644   19.4786 C   0  0  0  0  0  0  0  0  0  0  0  0
  -42.6715   27.3198   19.5279 C   0  0  0  0  0  0  0  0  0  0  0  0
  -41.7205   28.4489   19.0831 C   0  0  0  0  0  0  0  0  0  0  0  0
  -40.4192   28.4543   19.8818 C   0  0  0  0  0  0  0  0  0  0  0  0
  -46.4078   34.8792   23.7355 C   0  0  0  0  0  0  0  0  0  0  0  0
  -45.2931   35.7973   23.8053 N   0  0  0  0  0  0  0  0  0  0  0  0
  -44.4581   35.8144   24.9004 C   0  0  0  0  0  0  0  0  0  0  0  0
  -44.5796   35.0643   25.8630 O   0  0  0  0  0  0  0  0  0  0  0  0
  -45.1578   36.5096   23.0966 H   0  0  0  0  0  0  0  0  0  0  0  0
  -43.3539   36.8097   24.8531 C   0  0  0  0  0  0  0  0  0  0  0  0
  -42.6190   37.0099   25.9827 N   0  0  0  0  0  0  0  0  0  0  0  0
  -41.6343   37.9303   25.8816 C   0  0  0  0  0  0  0  0  0  0  0  0
  -40.8042   38.1768   26.9697 C   0  0  0  0  0  0  0  0  0  0  0  0
  -39.7817   39.1274   26.9084 C   0  0  0  0  0  0  0  0  0  0  0  0
  -39.5856   39.8531   25.7407 C   0  0  0  0  0  0  0  0  0  0  0  0
  -40.4037   39.6127   24.6374 C   0  0  0  0  0  0  0  0  0  0  0  0
  -41.4140   38.6613   24.6811 C   0  0  0  0  0  0  0  0  0  0  0  0
  -42.1605   38.4515   23.5809 N   0  0  0  0  0  0  0  0  0  0  0  0
  -43.1258   37.5076   23.6813 C   0  0  0  0  0  0  0  0  0  0  0  0
 14 15  1  0  0  0
 15 16  1  0  0  0
 16 17  1  0  0  0
 17 18  1  0  0  0
 18 19  1  0  0  0
 14 19  1  0  0  0
 17 13  1  0  0  0
 13 11  1  0  0  0
 11 10  1  0  0  0
 10  1  1  0  0  0
  1  2  2  0  0  0
  2  3  1  0  0  0
  3  4  1  0  0  0
  4  5  2  0  0  0
  5  6  1  0  0  0
  6  7  2  0  0  0
  3  7  1  0  0  0
  7  8  1  0  0  0
  8  9  2  0  0  0
  1  9  1  0  0  0
  5 20  1  0  0  0
 20 21  1  0  0  0
 21 22  1  0  0  0
 22 23  2  0  0  0
 22 25  1  0  0  0
 25 26  2  0  0  0
 26 27  1  0  0  0
 27 28  2  0  0  0
 28 29  1  0  0  0
 29 30  2  0  0  0
 30 31  1  0  0  0
 31 32  2  0  0  0
 27 32  1  0  0  0
 32 33  1  0  0  0
 33 34  2  0  0  0
 25 34  1  0  0  0
 11 12  1  0  0  0
 21 24  1  0  0  0
M  END
> <minimizedAffinity>
-9.59924

$$$$
